obj01
  PyMOL2.5          3D                             0

 11 11  0  0  0  0  0  0  0  0999 V2000
    8.8160   -0.5340   20.4000 N   0  0  0  0  0  0  0  0  0  0  0  0
    8.2370   -0.2760   22.8140 C   0  0  0  0  0  0  0  0  0  0  0  0
    8.1210   -0.9780   21.5220 C   0  0  0  0  0  0  0  0  0  0  0  0
    9.6660    0.6150   20.4680 C   0  0  0  0  0  0  0  0  0  0  0  0
    9.7730    1.3130   21.7120 C   0  0  0  0  0  0  0  0  0  0  0  0
    9.0630    0.8500   22.8750 C   0  0  0  0  0  0  0  0  0  0  0  0
    7.6956   -0.6243   23.6936 H   0  0  0  0  0  0  0  0  0  0  0  0
    7.4817   -1.8574   21.4443 H   0  0  0  0  0  0  0  0  0  0  0  0
   10.2197    0.9510   19.5913 H   0  0  0  0  0  0  0  0  0  0  0  0
   10.3979    2.2035   21.7797 H   0  0  0  0  0  0  0  0  0  0  0  0
    9.1710    1.3857   23.8181 H   0  0  0  0  0  0  0  0  0  0  0  0
  2  3  4  0  0  0  0
  2  6  4  0  0  0  0
  2  7  1  0  0  0  0
  1  3  4  0  0  0  0
  3  8  1  0  0  0  0
  1  4  4  0  0  0  0
  4  9  1  0  0  0  0
  4  5  4  0  0  0  0
  5 10  1  0  0  0  0
  5  6  4  0  0  0  0
  6 11  1  0  0  0  0
M  END
$$$$
